tests/data/upgrade-models/sb10_p12uhs5_1247_trans_301/p12udt6981/PVDeployments/sb10_p12uhs5_1247_trans_301__p12udt6981__random__7__25.dss
Redirect ../OpenDSS/Master.dss

// PV Scenario for 865.5011166578151 kW total size, Scenario type random, Sample 7 and penetration 25% (PV to load ratio) 
! =====================PV SCENARIO FILE==============================
New PVSystem.small_p12ulv4007_1_2_3_pv phases=3 bus1=p12ulv4007.1.2.3 kv=0.48 irradiance=1 Pmpp=57.509 %Pmpp=100 kVA=57.509 conn=wye %cutin=0.1 %cutout=0.1 Vmaxpu=1.2
New PVSystem.small_p12ulv4160_1_2_pv phases=1 bus1=p12ulv4160.1.2 kv=0.2402 irradiance=1 Pmpp=1.588 %Pmpp=100 kVA=1.588 conn=wye %cutin=0.1 %cutout=0.1 Vmaxpu=1.2
New PVSystem.small_p12ulv4000_1_2_pv phases=1 bus1=p12ulv4000.1.2 kv=0.2402 irradiance=1 Pmpp=4.045 %Pmpp=100 kVA=4.045 conn=wye %cutin=0.1 %cutout=0.1 Vmaxpu=1.2
New PVSystem.small_p12ulv28314_1_2_pv phases=1 bus1=p12ulv28314.1.2 kv=0.2402 irradiance=1 Pmpp=14.215 %Pmpp=100 kVA=14.215 conn=wye %cutin=0.1 %cutout=0.1 Vmaxpu=1.2
New PVSystem.small_p12ulv41774_1_2_pv phases=1 bus1=p12ulv41774.1.2 kv=0.2402 irradiance=1 Pmpp=3.242 %Pmpp=100 kVA=3.242 conn=wye %cutin=0.1 %cutout=0.1 Vmaxpu=1.2
New PVSystem.small_p12ulv24821_1_2_pv phases=1 bus1=p12ulv24821.1.2 kv=0.2402 irradiance=1 Pmpp=24.203 %Pmpp=100 kVA=24.203 conn=wye %cutin=0.1 %cutout=0.1 Vmaxpu=1.2
New PVSystem.small_p12ulv3568_1_2_pv phases=1 bus1=p12ulv3568.1.2 kv=0.2402 irradiance=1 Pmpp=7.069 %Pmpp=100 kVA=7.069 conn=wye %cutin=0.1 %cutout=0.1 Vmaxpu=1.2
New PVSystem.small_p12ulv41824_1_2_pv phases=1 bus1=p12ulv41824.1.2 kv=0.2402 irradiance=1 Pmpp=15.118 %Pmpp=100 kVA=15.118 conn=wye %cutin=0.1 %cutout=0.1 Vmaxpu=1.2
New PVSystem.small_p12ulv41752_1_2_pv phases=1 bus1=p12ulv41752.1.2 kv=0.2402 irradiance=1 Pmpp=7.326 %Pmpp=100 kVA=7.326 conn=wye %cutin=0.1 %cutout=0.1 Vmaxpu=1.2
New PVSystem.small_p12ulv41969_1_2_pv phases=1 bus1=p12ulv41969.1.2 kv=0.2402 irradiance=1 Pmpp=43.943 %Pmpp=100 kVA=43.943 conn=wye %cutin=0.1 %cutout=0.1 Vmaxpu=1.2
New PVSystem.small_p12ulv4059_1_2_pv phases=1 bus1=p12ulv4059.1.2 kv=0.2402 irradiance=1 Pmpp=16.109 %Pmpp=100 kVA=16.109 conn=wye %cutin=0.1 %cutout=0.1 Vmaxpu=1.2
New PVSystem.small_p12ulv3451_1_2_pv phases=1 bus1=p12ulv3451.1.2 kv=0.2402 irradiance=1 Pmpp=9.723 %Pmpp=100 kVA=9.723 conn=wye %cutin=0.1 %cutout=0.1 Vmaxpu=1.2
New PVSystem.small_p12ulv29426_1_2_pv phases=1 bus1=p12ulv29426.1.2 kv=0.2402 irradiance=1 Pmpp=13.459 %Pmpp=100 kVA=13.459 conn=wye %cutin=0.1 %cutout=0.1 Vmaxpu=1.2
New PVSystem.small_p12ulv41739_1_2_pv phases=1 bus1=p12ulv41739.1.2 kv=0.2402 irradiance=1 Pmpp=15.876 %Pmpp=100 kVA=15.876 conn=wye %cutin=0.1 %cutout=0.1 Vmaxpu=1.2
New PVSystem.small_p12ulv29186_1_2_pv phases=1 bus1=p12ulv29186.1.2 kv=0.2402 irradiance=1 Pmpp=7.711 %Pmpp=100 kVA=7.711 conn=wye %cutin=0.1 %cutout=0.1 Vmaxpu=1.2
New PVSystem.small_p12ulv4053_1_2_pv phases=1 bus1=p12ulv4053.1.2 kv=0.2402 irradiance=1 Pmpp=15.5 %Pmpp=100 kVA=15.5 conn=wye %cutin=0.1 %cutout=0.1 Vmaxpu=1.2
New PVSystem.small_p12ulv28235_1_2_pv phases=1 bus1=p12ulv28235.1.2 kv=0.2402 irradiance=1 Pmpp=13.93 %Pmpp=100 kVA=13.93 conn=wye %cutin=0.1 %cutout=0.1 Vmaxpu=1.2
New PVSystem.small_p12ulv4042_1_2_pv phases=1 bus1=p12ulv4042.1.2 kv=0.2402 irradiance=1 Pmpp=22.456 %Pmpp=100 kVA=22.456 conn=wye %cutin=0.1 %cutout=0.1 Vmaxpu=1.2
New PVSystem.small_p12ulv4170_1_2_pv phases=1 bus1=p12ulv4170.1.2 kv=0.2402 irradiance=1 Pmpp=2.499 %Pmpp=100 kVA=2.499 conn=wye %cutin=0.1 %cutout=0.1 Vmaxpu=1.2
New PVSystem.small_p12ulv40167_1_2_pv phases=1 bus1=p12ulv40167.1.2 kv=0.2402 irradiance=1 Pmpp=19.615 %Pmpp=100 kVA=19.615 conn=wye %cutin=0.1 %cutout=0.1 Vmaxpu=1.2
New PVSystem.small_p12ulv40098_1_2_pv phases=1 bus1=p12ulv40098.1.2 kv=0.2402 irradiance=1 Pmpp=6.828 %Pmpp=100 kVA=6.828 conn=wye %cutin=0.1 %cutout=0.1 Vmaxpu=1.2
New PVSystem.small_p12ulv29160_1_2_pv phases=1 bus1=p12ulv29160.1.2 kv=0.2402 irradiance=1 Pmpp=4.045 %Pmpp=100 kVA=4.045 conn=wye %cutin=0.1 %cutout=0.1 Vmaxpu=1.2
New PVSystem.small_p12ulv41754_1_2_pv phases=1 bus1=p12ulv41754.1.2 kv=0.2402 irradiance=1 Pmpp=5.799 %Pmpp=100 kVA=5.799 conn=wye %cutin=0.1 %cutout=0.1 Vmaxpu=1.2
New PVSystem.small_p12ulv3422_1_2_pv phases=1 bus1=p12ulv3422.1.2 kv=0.2402 irradiance=1 Pmpp=4.433 %Pmpp=100 kVA=4.433 conn=wye %cutin=0.1 %cutout=0.1 Vmaxpu=1.2
New PVSystem.small_p12ulv41819_1_2_pv phases=1 bus1=p12ulv41819.1.2 kv=0.2402 irradiance=1 Pmpp=5.901 %Pmpp=100 kVA=5.901 conn=wye %cutin=0.1 %cutout=0.1 Vmaxpu=1.2
New PVSystem.small_p12ulv41858_1_2_pv phases=1 bus1=p12ulv41858.1.2 kv=0.2402 irradiance=1 Pmpp=2.66 %Pmpp=100 kVA=2.66 conn=wye %cutin=0.1 %cutout=0.1 Vmaxpu=1.2
New PVSystem.small_p12ulv28574_1_2_pv phases=1 bus1=p12ulv28574.1.2 kv=0.2402 irradiance=1 Pmpp=5.901 %Pmpp=100 kVA=5.901 conn=wye %cutin=0.1 %cutout=0.1 Vmaxpu=1.2
New PVSystem.small_p12ulv3613_1_2_pv phases=1 bus1=p12ulv3613.1.2 kv=0.2402 irradiance=1 Pmpp=7.638 %Pmpp=100 kVA=7.638 conn=wye %cutin=0.1 %cutout=0.1 Vmaxpu=1.2
New PVSystem.small_p12ulv3991_1_2_pv phases=1 bus1=p12ulv3991.1.2 kv=0.2402 irradiance=1 Pmpp=9.092 %Pmpp=100 kVA=9.092 conn=wye %cutin=0.1 %cutout=0.1 Vmaxpu=1.2
New PVSystem.small_p12ulv4003_1_2_pv phases=1 bus1=p12ulv4003.1.2 kv=0.2402 irradiance=1 Pmpp=11.36 %Pmpp=100 kVA=11.36 conn=wye %cutin=0.1 %cutout=0.1 Vmaxpu=1.2
New PVSystem.small_p12ulv41727_1_2_pv phases=1 bus1=p12ulv41727.1.2 kv=0.2402 irradiance=1 Pmpp=6.485 %Pmpp=100 kVA=6.485 conn=wye %cutin=0.1 %cutout=0.1 Vmaxpu=1.2
New PVSystem.small_p12ulv3390_1_2_pv phases=1 bus1=p12ulv3390.1.2 kv=0.2402 irradiance=1 Pmpp=30.767 %Pmpp=100 kVA=30.767 conn=wye %cutin=0.1 %cutout=0.1 Vmaxpu=1.2
New PVSystem.small_p12ulv4077_1_2_pv phases=1 bus1=p12ulv4077.1.2 kv=0.2402 irradiance=1 Pmpp=7.069 %Pmpp=100 kVA=7.069 conn=wye %cutin=0.1 %cutout=0.1 Vmaxpu=1.2
New PVSystem.small_p12ulv41704_1_2_pv phases=1 bus1=p12ulv41704.1.2 kv=0.2402 irradiance=1 Pmpp=3.41 %Pmpp=100 kVA=3.41 conn=wye %cutin=0.1 %cutout=0.1 Vmaxpu=1.2
New PVSystem.small_p12ulv28150_1_2_pv phases=1 bus1=p12ulv28150.1.2 kv=0.2402 irradiance=1 Pmpp=4.153 %Pmpp=100 kVA=4.153 conn=wye %cutin=0.1 %cutout=0.1 Vmaxpu=1.2
New PVSystem.small_p12ulv40072_1_2_pv phases=1 bus1=p12ulv40072.1.2 kv=0.2402 irradiance=1 Pmpp=21.252 %Pmpp=100 kVA=21.252 conn=wye %cutin=0.1 %cutout=0.1 Vmaxpu=1.2
New PVSystem.small_p12ulv41846_1_2_pv phases=1 bus1=p12ulv41846.1.2 kv=0.2402 irradiance=1 Pmpp=8.641 %Pmpp=100 kVA=8.641 conn=wye %cutin=0.1 %cutout=0.1 Vmaxpu=1.2
New PVSystem.small_p12ulv3379_1_2_pv phases=1 bus1=p12ulv3379.1.2 kv=0.2402 irradiance=1 Pmpp=7.593 %Pmpp=100 kVA=7.593 conn=wye %cutin=0.1 %cutout=0.1 Vmaxpu=1.2
New PVSystem.small_p12ulv29363_1_2_pv phases=1 bus1=p12ulv29363.1.2 kv=0.2402 irradiance=1 Pmpp=7.413 %Pmpp=100 kVA=7.413 conn=wye %cutin=0.1 %cutout=0.1 Vmaxpu=1.2
New PVSystem.small_p12ulv28245_1_2_pv phases=1 bus1=p12ulv28245.1.2 kv=0.2402 irradiance=1 Pmpp=19.437 %Pmpp=100 kVA=19.437 conn=wye %cutin=0.1 %cutout=0.1 Vmaxpu=1.2
New PVSystem.small_p12ulv41758_1_2_pv phases=1 bus1=p12ulv41758.1.2 kv=0.2402 irradiance=1 Pmpp=5.799 %Pmpp=100 kVA=5.799 conn=wye %cutin=0.1 %cutout=0.1 Vmaxpu=1.2
New PVSystem.small_p12ulv28480_1_2_pv phases=1 bus1=p12ulv28480.1.2 kv=0.2402 irradiance=1 Pmpp=6.506 %Pmpp=100 kVA=6.506 conn=wye %cutin=0.1 %cutout=0.1 Vmaxpu=1.2
New PVSystem.small_p12ulv4088_1_2_pv phases=1 bus1=p12ulv4088.1.2 kv=0.2402 irradiance=1 Pmpp=6.951 %Pmpp=100 kVA=6.951 conn=wye %cutin=0.1 %cutout=0.1 Vmaxpu=1.2
New PVSystem.small_p12ulv41773_1_2_pv phases=1 bus1=p12ulv41773.1.2 kv=0.2402 irradiance=1 Pmpp=2.717 %Pmpp=100 kVA=2.717 conn=wye %cutin=0.1 %cutout=0.1 Vmaxpu=1.2
New PVSystem.small_p12ulv41893_1_2_pv phases=1 bus1=p12ulv41893.1.2 kv=0.2402 irradiance=1 Pmpp=2.661 %Pmpp=100 kVA=2.661 conn=wye %cutin=0.1 %cutout=0.1 Vmaxpu=1.2
New PVSystem.small_p12ulv4141_1_2_pv phases=1 bus1=p12ulv4141.1.2 kv=0.2402 irradiance=1 Pmpp=8.009 %Pmpp=100 kVA=8.009 conn=wye %cutin=0.1 %cutout=0.1 Vmaxpu=1.2
New PVSystem.small_p12ulv4020_1_2_pv phases=1 bus1=p12ulv4020.1.2 kv=0.2402 irradiance=1 Pmpp=8.372 %Pmpp=100 kVA=8.372 conn=wye %cutin=0.1 %cutout=0.1 Vmaxpu=1.2
New PVSystem.small_p12ulv3521_1_2_pv phases=1 bus1=p12ulv3521.1.2 kv=0.2402 irradiance=1 Pmpp=9.723 %Pmpp=100 kVA=9.723 conn=wye %cutin=0.1 %cutout=0.1 Vmaxpu=1.2
New PVSystem.small_p12ulv3407_1_2_pv phases=1 bus1=p12ulv3407.1.2 kv=0.2402 irradiance=1 Pmpp=10.408 %Pmpp=100 kVA=10.408 conn=wye %cutin=0.1 %cutout=0.1 Vmaxpu=1.2
New PVSystem.small_p12ulv4023_1_2_pv phases=1 bus1=p12ulv4023.1.2 kv=0.2402 irradiance=1 Pmpp=6.948 %Pmpp=100 kVA=6.948 conn=wye %cutin=0.1 %cutout=0.1 Vmaxpu=1.2
New PVSystem.small_p12ulv41780_1_2_pv phases=1 bus1=p12ulv41780.1.2 kv=0.2402 irradiance=1 Pmpp=2.768 %Pmpp=100 kVA=2.768 conn=wye %cutin=0.1 %cutout=0.1 Vmaxpu=1.2
New PVSystem.small_p12ulv41904_1_2_pv phases=1 bus1=p12ulv41904.1.2 kv=0.2402 irradiance=1 Pmpp=4.045 %Pmpp=100 kVA=4.045 conn=wye %cutin=0.1 %cutout=0.1 Vmaxpu=1.2
New PVSystem.small_p12ulv4183_1_2_pv phases=1 bus1=p12ulv4183.1.2 kv=0.2402 irradiance=1 Pmpp=7.399 %Pmpp=100 kVA=7.399 conn=wye %cutin=0.1 %cutout=0.1 Vmaxpu=1.2
New PVSystem.small_p12ulv4048_1_2_pv phases=1 bus1=p12ulv4048.1.2 kv=0.2402 irradiance=1 Pmpp=7.711 %Pmpp=100 kVA=7.711 conn=wye %cutin=0.1 %cutout=0.1 Vmaxpu=1.2
New PVSystem.small_p12ulv24738_1_2_pv phases=1 bus1=p12ulv24738.1.2 kv=0.2402 irradiance=1 Pmpp=30.089 %Pmpp=100 kVA=30.089 conn=wye %cutin=0.1 %cutout=0.1 Vmaxpu=1.2
New PVSystem.small_p12ulv24716_1_2_pv phases=1 bus1=p12ulv24716.1.2 kv=0.2402 irradiance=1 Pmpp=4.37 %Pmpp=100 kVA=4.37 conn=wye %cutin=0.1 %cutout=0.1 Vmaxpu=1.2
New PVSystem.small_p12ulv41755_1_2_pv phases=1 bus1=p12ulv41755.1.2 kv=0.2402 irradiance=1 Pmpp=13.93 %Pmpp=100 kVA=13.93 conn=wye %cutin=0.1 %cutout=0.1 Vmaxpu=1.2
New PVSystem.small_p12ulv3998_1_2_pv phases=1 bus1=p12ulv3998.1.2 kv=0.2402 irradiance=1 Pmpp=8.372 %Pmpp=100 kVA=8.372 conn=wye %cutin=0.1 %cutout=0.1 Vmaxpu=1.2
New PVSystem.small_p12ulv4237_1_2_pv phases=1 bus1=p12ulv4237.1.2 kv=0.2402 irradiance=1 Pmpp=14.857 %Pmpp=100 kVA=14.857 conn=wye %cutin=0.1 %cutout=0.1 Vmaxpu=1.2
New PVSystem.small_p12ulv4068_1_2_pv phases=1 bus1=p12ulv4068.1.2 kv=0.2402 irradiance=1 Pmpp=25.321 %Pmpp=100 kVA=25.321 conn=wye %cutin=0.1 %cutout=0.1 Vmaxpu=1.2
New PVSystem.small_p12ulv3633_1_2_pv phases=1 bus1=p12ulv3633.1.2 kv=0.2402 irradiance=1 Pmpp=2.122 %Pmpp=100 kVA=2.122 conn=wye %cutin=0.1 %cutout=0.1 Vmaxpu=1.2
New PVSystem.small_p12ulv41800_1_2_pv phases=1 bus1=p12ulv41800.1.2 kv=0.2402 irradiance=1 Pmpp=18.503 %Pmpp=100 kVA=18.503 conn=wye %cutin=0.1 %cutout=0.1 Vmaxpu=1.2
New PVSystem.small_p12ulv41914_1_2_pv phases=1 bus1=p12ulv41914.1.2 kv=0.2402 irradiance=1 Pmpp=15.5 %Pmpp=100 kVA=15.5 conn=wye %cutin=0.1 %cutout=0.1 Vmaxpu=1.2
New PVSystem.small_p12ulv4043_1_2_pv phases=1 bus1=p12ulv4043.1.2 kv=0.2402 irradiance=1 Pmpp=4.373 %Pmpp=100 kVA=4.373 conn=wye %cutin=0.1 %cutout=0.1 Vmaxpu=1.2
New PVSystem.small_p12ulv40262_1_2_pv phases=1 bus1=p12ulv40262.1.2 kv=0.2402 irradiance=1 Pmpp=13.728 %Pmpp=100 kVA=13.728 conn=wye %cutin=0.1 %cutout=0.1 Vmaxpu=1.2
New PVSystem.small_p12ulv40213_1_2_pv phases=1 bus1=p12ulv40213.1.2 kv=0.2402 irradiance=1 Pmpp=16.776 %Pmpp=100 kVA=16.776 conn=wye %cutin=0.1 %cutout=0.1 Vmaxpu=1.2
New PVSystem.small_p12ulv3949_1_2_pv phases=1 bus1=p12ulv3949.1.2 kv=0.2402 irradiance=1 Pmpp=18.759 %Pmpp=100 kVA=18.759 conn=wye %cutin=0.1 %cutout=0.1 Vmaxpu=1.2
New PVSystem.small_p12ulv41951_1_2_pv phases=1 bus1=p12ulv41951.1.2 kv=0.2402 irradiance=1 Pmpp=13.93 %Pmpp=100 kVA=13.93 conn=wye %cutin=0.1 %cutout=0.1 Vmaxpu=1.2
New PVSystem.small_p12ulv28269_1_2_pv phases=1 bus1=p12ulv28269.1.2 kv=0.2402 irradiance=1 Pmpp=19.897 %Pmpp=100 kVA=19.897 conn=wye %cutin=0.1 %cutout=0.1 Vmaxpu=1.2
New PVSystem.small_p12ulv41958_1_2_pv phases=1 bus1=p12ulv41958.1.2 kv=0.2402 irradiance=1 Pmpp=7.399 %Pmpp=100 kVA=7.399 conn=wye %cutin=0.1 %cutout=0.1 Vmaxpu=1.2
New PVSystem.small_p12ulv41903_1_2_pv phases=1 bus1=p12ulv41903.1.2 kv=0.2402 irradiance=1 Pmpp=5.192 %Pmpp=100 kVA=5.192 conn=wye %cutin=0.1 %cutout=0.1 Vmaxpu=1.2
New PVSystem.small_p12ulv4030_1_2_pv phases=1 bus1=p12ulv4030.1.2 kv=0.2402 irradiance=1 Pmpp=19.024 %Pmpp=100 kVA=19.024 conn=wye %cutin=0.1 %cutout=0.1 Vmaxpu=1.2
New PVSystem.small_p12ulv28264_1_2_pv phases=1 bus1=p12ulv28264.1.2 kv=0.2402 irradiance=1 Pmpp=2.548 %Pmpp=100 kVA=2.548 conn=wye %cutin=0.1 %cutout=0.1 Vmaxpu=1.2
New PVSystem.small_p12ulv41818_1_2_pv phases=1 bus1=p12ulv41818.1.2 kv=0.2402 irradiance=1 Pmpp=25.035 %Pmpp=100 kVA=25.035 conn=wye %cutin=0.1 %cutout=0.1 Vmaxpu=1.2
New PVSystem.small_p12ulv4164_1_2_pv phases=1 bus1=p12ulv4164.1.2 kv=0.2402 irradiance=1 Pmpp=0.744 %Pmpp=100 kVA=0.744 conn=wye %cutin=0.1 %cutout=0.1 Vmaxpu=1.2

Solve
